<?xml version="1.0" encoding="UTF-8"?>
<nodes>
   <node id="0" x="0.0" y="0.0"  type="priority" radius="0.0"/>

   <node id="1" x="-114.5" y="0.0" type="priority"/> 
   <node id="2" x="+114.5" y="0.0" type="priority"/>
   <node id="3" x="0.0" y="-114.5" type="priority"/>
   <node id="4" x="0.0" y="+114.5" type="priority"/>
   
   
</nodes>
