<?xml version="1.0" encoding="UTF-8"?>

<!-- generated on Tue Sep  5 09:40:43 2017 by SUMO netconvert Version 0.25.0
<?xml version="1.0" encoding="UTF-8"?>

<configuration xmlns:xsi="http://www.w3.org/2001/XMLSchema-instance" xsi:noNamespaceSchemaLocation="http://sumo.dlr.de/xsd/netconvertConfiguration.xsd">

    <input>
        <node-files value="cross.nod.xml"/>
        <edge-files value="cross.edg.xml"/>
        <connection-files value="cross.con.xml"/>
    </input>

    <output>
        <output-file value="cross.net.xml"/>
    </output>

</configuration>
-->

<net version="0.25" xmlns:xsi="http://www.w3.org/2001/XMLSchema-instance" xsi:noNamespaceSchemaLocation="http://sumo.dlr.de/xsd/net_file.xsd">

    <location netOffset="164.50,164.50" convBoundary="0.00,0.00,329.00,329.00" origBoundary="-164.50,-164.50,164.50,164.50" projParameter="!"/>

    <edge id=":0_0" function="internal">
        <lane id=":0_0_0" index="0" speed="17.00" length="5.24" width="3.50" shape="155.50,176.75 155.30,175.33 154.69,174.31 153.67,173.70 152.25,173.50"/>
    </edge>
    <edge id=":0_1" function="internal">
        <lane id=":0_1_0" index="0" speed="17.00" length="24.50" width="3.50" shape="159.10,176.75 159.10,169.48 159.10,164.50 159.10,159.52 159.10,152.25"/>
    </edge>
    <edge id=":0_2" function="internal">
        <lane id=":0_2_0" index="0" speed="17.00" length="13.59" width="3.50" shape="162.70,176.75 163.58,170.60 166.21,166.21 168.15,165.05"/>
    </edge>
    <edge id=":0_12" function="internal">
        <lane id=":0_12_0" index="0" speed="17.00" length="9.07" width="3.50" shape="168.15,165.05 170.60,163.58 176.75,162.70"/>
    </edge>
    <edge id=":0_3" function="internal">
        <lane id=":0_3_0" index="0" speed="17.00" length="5.24" width="3.50" shape="176.75,173.50 175.33,173.70 174.31,174.31 173.70,175.33 173.50,176.75"/>
    </edge>
    <edge id=":0_4" function="internal">
        <lane id=":0_4_0" index="0" speed="17.00" length="24.50" width="3.50" shape="176.75,169.90 169.48,169.90 164.50,169.90 159.52,169.90 152.25,169.90"/>
    </edge>
    <edge id=":0_5" function="internal">
        <lane id=":0_5_0" index="0" speed="17.00" length="22.66" width="3.50" shape="176.75,166.30 170.60,165.42 166.21,162.79 163.58,158.40 162.70,152.25"/>
    </edge>
    <edge id=":0_6" function="internal">
        <lane id=":0_6_0" index="0" speed="17.00" length="5.24" width="3.50" shape="173.50,152.25 173.70,153.67 174.31,154.69 175.33,155.30 176.75,155.50"/>
    </edge>
    <edge id=":0_7" function="internal">
        <lane id=":0_7_0" index="0" speed="17.00" length="24.50" width="3.50" shape="169.90,152.25 169.90,159.52 169.90,164.50 169.90,169.48 169.90,176.75"/>
    </edge>
    <edge id=":0_8" function="internal">
        <lane id=":0_8_0" index="0" speed="17.00" length="13.59" width="3.50" shape="166.30,152.25 165.42,158.40 162.79,162.79 160.85,163.95"/>
    </edge>
    <edge id=":0_13" function="internal">
        <lane id=":0_13_0" index="0" speed="17.00" length="9.07" width="3.50" shape="160.85,163.95 158.40,165.42 152.25,166.30"/>
    </edge>
    <edge id=":0_9" function="internal">
        <lane id=":0_9_0" index="0" speed="17.00" length="5.24" width="3.50" shape="152.25,155.50 153.67,155.30 154.69,154.69 155.30,153.67 155.50,152.25"/>
    </edge>
    <edge id=":0_10" function="internal">
        <lane id=":0_10_0" index="0" speed="17.00" length="24.50" width="3.50" shape="152.25,159.10 159.52,159.10 164.50,159.10 169.48,159.10 176.75,159.10"/>
    </edge>
    <edge id=":0_11" function="internal">
        <lane id=":0_11_0" index="0" speed="17.00" length="22.66" width="3.50" shape="152.25,162.70 158.40,163.58 162.79,166.21 165.42,170.60 166.30,176.75"/>
    </edge>
    <edge id=":1_0" function="internal">
        <lane id=":1_0_0" index="0" speed="17.00" length="0.10" width="3.50" shape="1.00,173.50 1.00,173.50"/>
        <lane id=":1_0_1" index="1" speed="17.00" length="0.10" width="3.50" shape="1.00,169.90 1.00,169.90"/>
        <lane id=":1_0_2" index="2" speed="17.00" length="0.10" width="3.50" shape="1.00,166.30 1.00,166.30"/>
    </edge>
    <edge id=":1_3" function="internal">
        <lane id=":1_3_0" index="0" speed="17.00" length="2.63" width="3.50" shape="1.00,166.30 -0.35,165.40 -0.80,164.50"/>
    </edge>
    <edge id=":1_8" function="internal">
        <lane id=":1_8_0" index="0" speed="17.00" length="2.63" width="3.50" shape="-0.80,164.50 -0.35,163.60 1.00,162.70"/>
    </edge>
    <edge id=":1_4" function="internal">
        <lane id=":1_4_0" index="0" speed="17.00" length="0.10" width="3.50" shape="1.00,155.50 1.00,155.50"/>
        <lane id=":1_4_1" index="1" speed="17.00" length="0.10" width="3.50" shape="1.00,159.10 1.00,159.10"/>
        <lane id=":1_4_2" index="2" speed="17.00" length="0.10" width="3.50" shape="1.00,162.70 1.00,162.70"/>
    </edge>
    <edge id=":1_7" function="internal">
        <lane id=":1_7_0" index="0" speed="17.00" length="2.63" width="3.50" shape="1.00,162.70 2.35,163.60 2.80,164.50"/>
    </edge>
    <edge id=":1_9" function="internal">
        <lane id=":1_9_0" index="0" speed="17.00" length="2.63" width="3.50" shape="2.80,164.50 2.35,165.40 1.00,166.30"/>
    </edge>
    <edge id=":2_0" function="internal">
        <lane id=":2_0_0" index="0" speed="17.00" length="0.10" width="3.50" shape="328.00,173.50 328.00,173.50"/>
        <lane id=":2_0_1" index="1" speed="17.00" length="0.10" width="3.50" shape="328.00,169.90 328.00,169.90"/>
        <lane id=":2_0_2" index="2" speed="17.00" length="0.10" width="3.50" shape="328.00,166.30 328.00,166.30"/>
    </edge>
    <edge id=":2_3" function="internal">
        <lane id=":2_3_0" index="0" speed="17.00" length="2.63" width="3.50" shape="328.00,166.30 326.65,165.40 326.20,164.50"/>
    </edge>
    <edge id=":2_8" function="internal">
        <lane id=":2_8_0" index="0" speed="17.00" length="2.63" width="3.50" shape="326.20,164.50 326.65,163.60 328.00,162.70"/>
    </edge>
    <edge id=":2_4" function="internal">
        <lane id=":2_4_0" index="0" speed="17.00" length="0.10" width="3.50" shape="328.00,155.50 328.00,155.50"/>
        <lane id=":2_4_1" index="1" speed="17.00" length="0.10" width="3.50" shape="328.00,159.10 328.00,159.10"/>
        <lane id=":2_4_2" index="2" speed="17.00" length="0.10" width="3.50" shape="328.00,162.70 328.00,162.70"/>
    </edge>
    <edge id=":2_7" function="internal">
        <lane id=":2_7_0" index="0" speed="17.00" length="2.63" width="3.50" shape="328.00,162.70 329.35,163.60 329.80,164.50"/>
    </edge>
    <edge id=":2_9" function="internal">
        <lane id=":2_9_0" index="0" speed="17.00" length="2.63" width="3.50" shape="329.80,164.50 329.35,165.40 328.00,166.30"/>
    </edge>
    <edge id=":3_0" function="internal">
        <lane id=":3_0_0" index="0" speed="17.00" length="0.10" width="3.50" shape="155.50,1.00 155.50,1.00"/>
        <lane id=":3_0_1" index="1" speed="17.00" length="0.10" width="3.50" shape="159.10,1.00 159.10,1.00"/>
        <lane id=":3_0_2" index="2" speed="17.00" length="0.10" width="3.50" shape="162.70,1.00 162.70,1.00"/>
    </edge>
    <edge id=":3_3" function="internal">
        <lane id=":3_3_0" index="0" speed="17.00" length="2.63" width="3.50" shape="162.70,1.00 163.60,-0.35 164.50,-0.80"/>
    </edge>
    <edge id=":3_8" function="internal">
        <lane id=":3_8_0" index="0" speed="17.00" length="2.63" width="3.50" shape="164.50,-0.80 165.40,-0.35 166.30,1.00"/>
    </edge>
    <edge id=":3_4" function="internal">
        <lane id=":3_4_0" index="0" speed="17.00" length="0.10" width="3.50" shape="173.50,1.00 173.50,1.00"/>
        <lane id=":3_4_1" index="1" speed="17.00" length="0.10" width="3.50" shape="169.90,1.00 169.90,1.00"/>
        <lane id=":3_4_2" index="2" speed="17.00" length="0.10" width="3.50" shape="166.30,1.00 166.30,1.00"/>
    </edge>
    <edge id=":3_7" function="internal">
        <lane id=":3_7_0" index="0" speed="17.00" length="2.63" width="3.50" shape="166.30,1.00 165.40,2.35 164.50,2.80"/>
    </edge>
    <edge id=":3_9" function="internal">
        <lane id=":3_9_0" index="0" speed="17.00" length="2.63" width="3.50" shape="164.50,2.80 163.60,2.35 162.70,1.00"/>
    </edge>
    <edge id=":4_0" function="internal">
        <lane id=":4_0_0" index="0" speed="17.00" length="0.10" width="3.50" shape="155.50,328.00 155.50,328.00"/>
        <lane id=":4_0_1" index="1" speed="17.00" length="0.10" width="3.50" shape="159.10,328.00 159.10,328.00"/>
        <lane id=":4_0_2" index="2" speed="17.00" length="0.10" width="3.50" shape="162.70,328.00 162.70,328.00"/>
    </edge>
    <edge id=":4_3" function="internal">
        <lane id=":4_3_0" index="0" speed="17.00" length="2.63" width="3.50" shape="162.70,328.00 163.60,326.65 164.50,326.20"/>
    </edge>
    <edge id=":4_8" function="internal">
        <lane id=":4_8_0" index="0" speed="17.00" length="2.63" width="3.50" shape="164.50,326.20 165.40,326.65 166.30,328.00"/>
    </edge>
    <edge id=":4_4" function="internal">
        <lane id=":4_4_0" index="0" speed="17.00" length="0.10" width="3.50" shape="173.50,328.00 173.50,328.00"/>
        <lane id=":4_4_1" index="1" speed="17.00" length="0.10" width="3.50" shape="169.90,328.00 169.90,328.00"/>
        <lane id=":4_4_2" index="2" speed="17.00" length="0.10" width="3.50" shape="166.30,328.00 166.30,328.00"/>
    </edge>
    <edge id=":4_7" function="internal">
        <lane id=":4_7_0" index="0" speed="17.00" length="2.63" width="3.50" shape="166.30,328.00 165.40,329.35 164.50,329.80"/>
    </edge>
    <edge id=":4_9" function="internal">
        <lane id=":4_9_0" index="0" speed="17.00" length="2.63" width="3.50" shape="164.50,329.80 163.60,329.35 162.70,328.00"/>
    </edge>
    <edge id=":51_0" function="internal">
        <lane id=":51_0_0" index="0" speed="17.00" length="5.26" width="3.50" shape="0.00,166.30 -1.35,165.40 -1.80,164.50 -1.35,163.60 0.00,162.70"/>
    </edge>
    <edge id=":52_0" function="internal">
        <lane id=":52_0_0" index="0" speed="17.00" length="5.26" width="3.50" shape="329.00,162.70 330.35,163.60 330.80,164.50 330.35,165.40 329.00,166.30"/>
    </edge>
    <edge id=":53_0" function="internal">
        <lane id=":53_0_0" index="0" speed="17.00" length="5.26" width="3.50" shape="162.70,0.00 163.60,-1.35 164.50,-1.80 165.40,-1.35 166.30,0.00"/>
    </edge>
    <edge id=":54_0" function="internal">
        <lane id=":54_0_0" index="0" speed="17.00" length="5.26" width="3.50" shape="166.30,329.00 165.40,330.35 164.50,330.80 163.60,330.35 162.70,329.00"/>
    </edge>

    <edge id="1i" from="1" to="0" priority="50">
        <lane id="1i_0" index="0" speed="17.00" length="151.25" width="3.50" shape="1.00,155.50 152.25,155.50"/>
        <lane id="1i_1" index="1" speed="17.00" length="151.25" width="3.50" shape="1.00,159.10 152.25,159.10"/>
        <lane id="1i_2" index="2" speed="17.00" length="151.25" width="3.50" shape="1.00,162.70 152.25,162.70"/>
    </edge>
    <edge id="1o" from="0" to="1" priority="50">
        <lane id="1o_0" index="0" speed="17.00" length="151.25" width="3.50" shape="152.25,173.50 1.00,173.50"/>
        <lane id="1o_1" index="1" speed="17.00" length="151.25" width="3.50" shape="152.25,169.90 1.00,169.90"/>
        <lane id="1o_2" index="2" speed="17.00" length="151.25" width="3.50" shape="152.25,166.30 1.00,166.30"/>
    </edge>
    <edge id="2i" from="2" to="0" priority="50">
        <lane id="2i_0" index="0" speed="17.00" length="151.25" width="3.50" shape="328.00,173.50 176.75,173.50"/>
        <lane id="2i_1" index="1" speed="17.00" length="151.25" width="3.50" shape="328.00,169.90 176.75,169.90"/>
        <lane id="2i_2" index="2" speed="17.00" length="151.25" width="3.50" shape="328.00,166.30 176.75,166.30"/>
    </edge>
    <edge id="2o" from="0" to="2" priority="50">
        <lane id="2o_0" index="0" speed="17.00" length="151.25" width="3.50" shape="176.75,155.50 328.00,155.50"/>
        <lane id="2o_1" index="1" speed="17.00" length="151.25" width="3.50" shape="176.75,159.10 328.00,159.10"/>
        <lane id="2o_2" index="2" speed="17.00" length="151.25" width="3.50" shape="176.75,162.70 328.00,162.70"/>
    </edge>
    <edge id="3i" from="3" to="0" priority="50">
        <lane id="3i_0" index="0" speed="17.00" length="151.25" width="3.50" shape="173.50,1.00 173.50,152.25"/>
        <lane id="3i_1" index="1" speed="17.00" length="151.25" width="3.50" shape="169.90,1.00 169.90,152.25"/>
        <lane id="3i_2" index="2" speed="17.00" length="151.25" width="3.50" shape="166.30,1.00 166.30,152.25"/>
    </edge>
    <edge id="3o" from="0" to="3" priority="50">
        <lane id="3o_0" index="0" speed="17.00" length="151.25" width="3.50" shape="155.50,152.25 155.50,1.00"/>
        <lane id="3o_1" index="1" speed="17.00" length="151.25" width="3.50" shape="159.10,152.25 159.10,1.00"/>
        <lane id="3o_2" index="2" speed="17.00" length="151.25" width="3.50" shape="162.70,152.25 162.70,1.00"/>
    </edge>
    <edge id="4i" from="4" to="0" priority="50">
        <lane id="4i_0" index="0" speed="17.00" length="151.25" width="3.50" shape="155.50,328.00 155.50,176.75"/>
        <lane id="4i_1" index="1" speed="17.00" length="151.25" width="3.50" shape="159.10,328.00 159.10,176.75"/>
        <lane id="4i_2" index="2" speed="17.00" length="151.25" width="3.50" shape="162.70,328.00 162.70,176.75"/>
    </edge>
    <edge id="4o" from="0" to="4" priority="50">
        <lane id="4o_0" index="0" speed="17.00" length="151.25" width="3.50" shape="173.50,176.75 173.50,328.00"/>
        <lane id="4o_1" index="1" speed="17.00" length="151.25" width="3.50" shape="169.90,176.75 169.90,328.00"/>
        <lane id="4o_2" index="2" speed="17.00" length="151.25" width="3.50" shape="166.30,176.75 166.30,328.00"/>
    </edge>
    <edge id="51i" from="1" to="51" priority="50">
        <lane id="51i_0" index="0" speed="17.00" length="1.00" width="3.50" shape="1.00,173.50 0.00,173.50"/>
        <lane id="51i_1" index="1" speed="17.00" length="1.00" width="3.50" shape="1.00,169.90 0.00,169.90"/>
        <lane id="51i_2" index="2" speed="17.00" length="1.00" width="3.50" shape="1.00,166.30 0.00,166.30"/>
    </edge>
    <edge id="51o" from="51" to="1" priority="50">
        <lane id="51o_0" index="0" speed="17.00" length="1.00" width="3.50" shape="0.00,155.50 1.00,155.50"/>
        <lane id="51o_1" index="1" speed="17.00" length="1.00" width="3.50" shape="0.00,159.10 1.00,159.10"/>
        <lane id="51o_2" index="2" speed="17.00" length="1.00" width="3.50" shape="0.00,162.70 1.00,162.70"/>
    </edge>
    <edge id="52i" from="2" to="52" priority="50">
        <lane id="52i_0" index="0" speed="17.00" length="1.00" width="3.50" shape="328.00,155.50 329.00,155.50"/>
        <lane id="52i_1" index="1" speed="17.00" length="1.00" width="3.50" shape="328.00,159.10 329.00,159.10"/>
        <lane id="52i_2" index="2" speed="17.00" length="1.00" width="3.50" shape="328.00,162.70 329.00,162.70"/>
    </edge>
    <edge id="52o" from="52" to="2" priority="50">
        <lane id="52o_0" index="0" speed="17.00" length="1.00" width="3.50" shape="329.00,173.50 328.00,173.50"/>
        <lane id="52o_1" index="1" speed="17.00" length="1.00" width="3.50" shape="329.00,169.90 328.00,169.90"/>
        <lane id="52o_2" index="2" speed="17.00" length="1.00" width="3.50" shape="329.00,166.30 328.00,166.30"/>
    </edge>
    <edge id="53i" from="3" to="53" priority="50">
        <lane id="53i_0" index="0" speed="17.00" length="1.00" width="3.50" shape="155.50,1.00 155.50,0.00"/>
        <lane id="53i_1" index="1" speed="17.00" length="1.00" width="3.50" shape="159.10,1.00 159.10,0.00"/>
        <lane id="53i_2" index="2" speed="17.00" length="1.00" width="3.50" shape="162.70,1.00 162.70,0.00"/>
    </edge>
    <edge id="53o" from="53" to="3" priority="50">
        <lane id="53o_0" index="0" speed="17.00" length="1.00" width="3.50" shape="173.50,0.00 173.50,1.00"/>
        <lane id="53o_1" index="1" speed="17.00" length="1.00" width="3.50" shape="169.90,0.00 169.90,1.00"/>
        <lane id="53o_2" index="2" speed="17.00" length="1.00" width="3.50" shape="166.30,0.00 166.30,1.00"/>
    </edge>
    <edge id="54i" from="4" to="54" priority="50">
        <lane id="54i_0" index="0" speed="17.00" length="1.00" width="3.50" shape="173.50,328.00 173.50,329.00"/>
        <lane id="54i_1" index="1" speed="17.00" length="1.00" width="3.50" shape="169.90,328.00 169.90,329.00"/>
        <lane id="54i_2" index="2" speed="17.00" length="1.00" width="3.50" shape="166.30,328.00 166.30,329.00"/>
    </edge>
    <edge id="54o" from="54" to="4" priority="50">
        <lane id="54o_0" index="0" speed="17.00" length="1.00" width="3.50" shape="155.50,329.00 155.50,328.00"/>
        <lane id="54o_1" index="1" speed="17.00" length="1.00" width="3.50" shape="159.10,329.00 159.10,328.00"/>
        <lane id="54o_2" index="2" speed="17.00" length="1.00" width="3.50" shape="162.70,329.00 162.70,328.00"/>
    </edge>

    <junction id="0" type="priority" x="164.50" y="164.50" incLanes="4i_0 4i_1 4i_2 2i_0 2i_1 2i_2 3i_0 3i_1 3i_2 1i_0 1i_1 1i_2" intLanes=":0_0_0 :0_1_0 :0_12_0 :0_3_0 :0_4_0 :0_5_0 :0_6_0 :0_7_0 :0_13_0 :0_9_0 :0_10_0 :0_11_0" shape="153.75,176.75 175.25,176.75 176.75,175.25 176.75,153.75 175.25,152.25 153.75,152.25 152.25,153.75 152.25,175.25">
        <request index="0" response="000000000000" foes="000000000000" cont="0"/>
        <request index="1" response="000000000000" foes="110100010000" cont="0"/>
        <request index="2" response="000010000000" foes="100010110000" cont="1"/>
        <request index="3" response="000000000000" foes="000000000000" cont="0"/>
        <request index="4" response="000010000110" foes="100010000110" cont="0"/>
        <request index="5" response="010110000100" foes="010110000100" cont="0"/>
        <request index="6" response="000000000000" foes="000000000000" cont="0"/>
        <request index="7" response="000000000000" foes="010000110100" cont="0"/>
        <request index="8" response="000000000010" foes="110000100010" cont="1"/>
        <request index="9" response="000000000000" foes="000000000000" cont="0"/>
        <request index="10" response="000110000010" foes="000110100010" cont="0"/>
        <request index="11" response="000100010110" foes="000100010110" cont="0"/>
    </junction>
    <junction id="1" type="priority" x="1.00" y="164.50" incLanes="1o_0 1o_1 1o_2 51o_0 51o_1 51o_2" intLanes=":1_0_0 :1_0_1 :1_0_2 :1_8_0 :1_4_0 :1_4_1 :1_4_2 :1_9_0" shape="1.00,175.25 1.00,153.75 1.00,175.25">
        <request index="0" response="00000000" foes="10000000" cont="0"/>
        <request index="1" response="00000000" foes="10000000" cont="0"/>
        <request index="2" response="00000000" foes="10000000" cont="0"/>
        <request index="3" response="01110000" foes="01110000" cont="1"/>
        <request index="4" response="00000000" foes="00001000" cont="0"/>
        <request index="5" response="00000000" foes="00001000" cont="0"/>
        <request index="6" response="00000000" foes="00001000" cont="0"/>
        <request index="7" response="00000111" foes="00000111" cont="1"/>
    </junction>
    <junction id="2" type="priority" x="328.00" y="164.50" incLanes="52o_0 52o_1 52o_2 2o_0 2o_1 2o_2" intLanes=":2_0_0 :2_0_1 :2_0_2 :2_8_0 :2_4_0 :2_4_1 :2_4_2 :2_9_0" shape="328.00,175.25 328.00,153.75 328.00,175.25">
        <request index="0" response="00000000" foes="10000000" cont="0"/>
        <request index="1" response="00000000" foes="10000000" cont="0"/>
        <request index="2" response="00000000" foes="10000000" cont="0"/>
        <request index="3" response="01110000" foes="01110000" cont="1"/>
        <request index="4" response="00000000" foes="00001000" cont="0"/>
        <request index="5" response="00000000" foes="00001000" cont="0"/>
        <request index="6" response="00000000" foes="00001000" cont="0"/>
        <request index="7" response="00000111" foes="00000111" cont="1"/>
    </junction>
    <junction id="3" type="priority" x="164.50" y="1.00" incLanes="3o_0 3o_1 3o_2 53o_0 53o_1 53o_2" intLanes=":3_0_0 :3_0_1 :3_0_2 :3_8_0 :3_4_0 :3_4_1 :3_4_2 :3_9_0" shape="153.75,1.00 175.25,1.00 153.75,1.00">
        <request index="0" response="00000000" foes="10000000" cont="0"/>
        <request index="1" response="00000000" foes="10000000" cont="0"/>
        <request index="2" response="00000000" foes="10000000" cont="0"/>
        <request index="3" response="01110000" foes="01110000" cont="1"/>
        <request index="4" response="00000000" foes="00001000" cont="0"/>
        <request index="5" response="00000000" foes="00001000" cont="0"/>
        <request index="6" response="00000000" foes="00001000" cont="0"/>
        <request index="7" response="00000111" foes="00000111" cont="1"/>
    </junction>
    <junction id="4" type="priority" x="164.50" y="328.00" incLanes="54o_0 54o_1 54o_2 4o_0 4o_1 4o_2" intLanes=":4_0_0 :4_0_1 :4_0_2 :4_8_0 :4_4_0 :4_4_1 :4_4_2 :4_9_0" shape="153.75,328.00 175.25,328.00 153.75,328.00">
        <request index="0" response="00000000" foes="10000000" cont="0"/>
        <request index="1" response="00000000" foes="10000000" cont="0"/>
        <request index="2" response="00000000" foes="10000000" cont="0"/>
        <request index="3" response="01110000" foes="01110000" cont="1"/>
        <request index="4" response="00000000" foes="00001000" cont="0"/>
        <request index="5" response="00000000" foes="00001000" cont="0"/>
        <request index="6" response="00000000" foes="00001000" cont="0"/>
        <request index="7" response="00000111" foes="00000111" cont="1"/>
    </junction>
    <junction id="51" type="priority" x="0.00" y="164.50" incLanes="51i_0 51i_1 51i_2" intLanes=":51_0_0" shape="0.00,164.45 0.00,153.75 0.00,175.25 0.00,164.55">
        <request index="0" response="0" foes="0" cont="0"/>
    </junction>
    <junction id="52" type="priority" x="329.00" y="164.50" incLanes="52i_0 52i_1 52i_2" intLanes=":52_0_0" shape="329.00,164.55 329.00,175.25 329.00,153.75 329.00,164.45">
        <request index="0" response="0" foes="0" cont="0"/>
    </junction>
    <junction id="53" type="priority" x="164.50" y="0.00" incLanes="53i_0 53i_1 53i_2" intLanes=":53_0_0" shape="164.55,0.00 175.25,0.00 153.75,0.00 164.45,0.00">
        <request index="0" response="0" foes="0" cont="0"/>
    </junction>
    <junction id="54" type="priority" x="164.50" y="329.00" incLanes="54i_0 54i_1 54i_2" intLanes=":54_0_0" shape="164.45,329.00 153.75,329.00 175.25,329.00 164.55,329.00">
        <request index="0" response="0" foes="0" cont="0"/>
    </junction>

    <junction id=":0_12_0" type="internal" x="168.15" y="165.05" incLanes=":0_2_0 3i_1" intLanes=":0_4_0 :0_5_0 :0_7_0 :0_11_0"/>
    <junction id=":0_13_0" type="internal" x="160.85" y="163.95" incLanes=":0_8_0 4i_1" intLanes=":0_1_0 :0_5_0 :0_10_0 :0_11_0"/>
    <junction id=":1_8_0" type="internal" x="-0.80" y="164.50" incLanes=":1_3_0 51o_0 51o_1 51o_2" intLanes=":1_4_0 :1_4_1 :1_4_2"/>
    <junction id=":1_9_0" type="internal" x="2.80" y="164.50" incLanes=":1_7_0 1o_0 1o_1 1o_2" intLanes=":1_0_0 :1_0_1 :1_0_2"/>
    <junction id=":2_8_0" type="internal" x="326.20" y="164.50" incLanes=":2_3_0 2o_0 2o_1 2o_2" intLanes=":2_4_0 :2_4_1 :2_4_2"/>
    <junction id=":2_9_0" type="internal" x="329.80" y="164.50" incLanes=":2_7_0 52o_0 52o_1 52o_2" intLanes=":2_0_0 :2_0_1 :2_0_2"/>
    <junction id=":3_8_0" type="internal" x="164.50" y="-0.80" incLanes=":3_3_0 53o_0 53o_1 53o_2" intLanes=":3_4_0 :3_4_1 :3_4_2"/>
    <junction id=":3_9_0" type="internal" x="164.50" y="2.80" incLanes=":3_7_0 3o_0 3o_1 3o_2" intLanes=":3_0_0 :3_0_1 :3_0_2"/>
    <junction id=":4_8_0" type="internal" x="164.50" y="326.20" incLanes=":4_3_0 4o_0 4o_1 4o_2" intLanes=":4_4_0 :4_4_1 :4_4_2"/>
    <junction id=":4_9_0" type="internal" x="164.50" y="329.80" incLanes=":4_7_0 54o_0 54o_1 54o_2" intLanes=":4_0_0 :4_0_1 :4_0_2"/>

    <connection from="1i" to="3o" fromLane="0" toLane="0" via=":0_9_0" dir="r" state="M"/>
    <connection from="1i" to="2o" fromLane="1" toLane="1" via=":0_10_0" dir="s" state="m"/>
    <connection from="1i" to="4o" fromLane="2" toLane="2" via=":0_11_0" dir="l" state="m"/>
    <connection from="1o" to="51i" fromLane="0" toLane="0" via=":1_0_0" dir="s" state="M"/>
    <connection from="1o" to="51i" fromLane="1" toLane="1" via=":1_0_1" dir="s" state="M"/>
    <connection from="1o" to="51i" fromLane="2" toLane="2" via=":1_0_2" dir="s" state="M"/>
    <connection from="1o" to="1i" fromLane="2" toLane="2" via=":1_3_0" dir="t" state="m"/>
    <connection from="2i" to="4o" fromLane="0" toLane="0" via=":0_3_0" dir="r" state="M"/>
    <connection from="2i" to="1o" fromLane="1" toLane="1" via=":0_4_0" dir="s" state="m"/>
    <connection from="2i" to="3o" fromLane="2" toLane="2" via=":0_5_0" dir="l" state="m"/>
    <connection from="2o" to="52i" fromLane="0" toLane="0" via=":2_4_0" dir="s" state="M"/>
    <connection from="2o" to="52i" fromLane="1" toLane="1" via=":2_4_1" dir="s" state="M"/>
    <connection from="2o" to="52i" fromLane="2" toLane="2" via=":2_4_2" dir="s" state="M"/>
    <connection from="2o" to="2i" fromLane="2" toLane="2" via=":2_7_0" dir="t" state="m"/>
    <connection from="3i" to="2o" fromLane="0" toLane="0" via=":0_6_0" dir="r" state="M"/>
    <connection from="3i" to="4o" fromLane="1" toLane="1" via=":0_7_0" dir="s" state="M"/>
    <connection from="3i" to="1o" fromLane="2" toLane="2" via=":0_8_0" dir="l" state="m"/>
    <connection from="3o" to="53i" fromLane="0" toLane="0" via=":3_0_0" dir="s" state="M"/>
    <connection from="3o" to="53i" fromLane="1" toLane="1" via=":3_0_1" dir="s" state="M"/>
    <connection from="3o" to="53i" fromLane="2" toLane="2" via=":3_0_2" dir="s" state="M"/>
    <connection from="3o" to="3i" fromLane="2" toLane="2" via=":3_3_0" dir="t" state="m"/>
    <connection from="4i" to="1o" fromLane="0" toLane="0" via=":0_0_0" dir="r" state="M"/>
    <connection from="4i" to="3o" fromLane="1" toLane="1" via=":0_1_0" dir="s" state="M"/>
    <connection from="4i" to="2o" fromLane="2" toLane="2" via=":0_2_0" dir="l" state="m"/>
    <connection from="4o" to="54i" fromLane="0" toLane="0" via=":4_4_0" dir="s" state="M"/>
    <connection from="4o" to="54i" fromLane="1" toLane="1" via=":4_4_1" dir="s" state="M"/>
    <connection from="4o" to="54i" fromLane="2" toLane="2" via=":4_4_2" dir="s" state="M"/>
    <connection from="4o" to="4i" fromLane="2" toLane="2" via=":4_7_0" dir="t" state="m"/>
    <connection from="51i" to="51o" fromLane="2" toLane="2" via=":51_0_0" dir="t" state="M"/>
    <connection from="51o" to="1i" fromLane="0" toLane="0" via=":1_4_0" dir="s" state="M"/>
    <connection from="51o" to="1i" fromLane="1" toLane="1" via=":1_4_1" dir="s" state="M"/>
    <connection from="51o" to="1i" fromLane="2" toLane="2" via=":1_4_2" dir="s" state="M"/>
    <connection from="51o" to="51i" fromLane="2" toLane="2" via=":1_7_0" dir="t" state="m"/>
    <connection from="52i" to="52o" fromLane="2" toLane="2" via=":52_0_0" dir="t" state="M"/>
    <connection from="52o" to="2i" fromLane="0" toLane="0" via=":2_0_0" dir="s" state="M"/>
    <connection from="52o" to="2i" fromLane="1" toLane="1" via=":2_0_1" dir="s" state="M"/>
    <connection from="52o" to="2i" fromLane="2" toLane="2" via=":2_0_2" dir="s" state="M"/>
    <connection from="52o" to="52i" fromLane="2" toLane="2" via=":2_3_0" dir="t" state="m"/>
    <connection from="53i" to="53o" fromLane="2" toLane="2" via=":53_0_0" dir="t" state="M"/>
    <connection from="53o" to="3i" fromLane="0" toLane="0" via=":3_4_0" dir="s" state="M"/>
    <connection from="53o" to="3i" fromLane="1" toLane="1" via=":3_4_1" dir="s" state="M"/>
    <connection from="53o" to="3i" fromLane="2" toLane="2" via=":3_4_2" dir="s" state="M"/>
    <connection from="53o" to="53i" fromLane="2" toLane="2" via=":3_7_0" dir="t" state="m"/>
    <connection from="54i" to="54o" fromLane="2" toLane="2" via=":54_0_0" dir="t" state="M"/>
    <connection from="54o" to="4i" fromLane="0" toLane="0" via=":4_0_0" dir="s" state="M"/>
    <connection from="54o" to="4i" fromLane="1" toLane="1" via=":4_0_1" dir="s" state="M"/>
    <connection from="54o" to="4i" fromLane="2" toLane="2" via=":4_0_2" dir="s" state="M"/>
    <connection from="54o" to="54i" fromLane="2" toLane="2" via=":4_3_0" dir="t" state="m"/>

    <connection from=":0_0" to="1o" fromLane="0" toLane="0" dir="s" state="M"/>
    <connection from=":0_1" to="3o" fromLane="0" toLane="1" dir="s" state="M"/>
    <connection from=":0_2" to="2o" fromLane="0" toLane="2" via=":0_12_0" dir="s" state="m"/>
    <connection from=":0_12" to="2o" fromLane="0" toLane="2" dir="s" state="M"/>
    <connection from=":0_3" to="4o" fromLane="0" toLane="0" dir="s" state="M"/>
    <connection from=":0_4" to="1o" fromLane="0" toLane="1" dir="s" state="M"/>
    <connection from=":0_5" to="3o" fromLane="0" toLane="2" dir="s" state="M"/>
    <connection from=":0_6" to="2o" fromLane="0" toLane="0" dir="s" state="M"/>
    <connection from=":0_7" to="4o" fromLane="0" toLane="1" dir="s" state="M"/>
    <connection from=":0_8" to="1o" fromLane="0" toLane="2" via=":0_13_0" dir="s" state="m"/>
    <connection from=":0_13" to="1o" fromLane="0" toLane="2" dir="s" state="M"/>
    <connection from=":0_9" to="3o" fromLane="0" toLane="0" dir="s" state="M"/>
    <connection from=":0_10" to="2o" fromLane="0" toLane="1" dir="s" state="M"/>
    <connection from=":0_11" to="4o" fromLane="0" toLane="2" dir="s" state="M"/>
    <connection from=":1_0" to="51i" fromLane="0" toLane="0" dir="s" state="M"/>
    <connection from=":1_0" to="51i" fromLane="1" toLane="1" dir="s" state="M"/>
    <connection from=":1_0" to="51i" fromLane="2" toLane="2" dir="s" state="M"/>
    <connection from=":1_3" to="1i" fromLane="0" toLane="2" via=":1_8_0" dir="s" state="m"/>
    <connection from=":1_8" to="1i" fromLane="0" toLane="2" dir="s" state="M"/>
    <connection from=":1_4" to="1i" fromLane="0" toLane="0" dir="s" state="M"/>